/*--------------------------------*- C++ -*----------------------------------*\
| =========                 |                                                 |
| \\      /  F ield         | OpenFOAM: The Open Source CFD Toolbox           |
|  \\    /   O peration     | Version:  1.7.0                                 |
|   \\  /    A nd           | Web:      www.OpenFOAM.com                      |
|    \\/     M anipulation  |                                                 |
\*---------------------------------------------------------------------------*/
FoamFile
{
    version     2.0;
    format      ascii;
    class       dictionary;
    object      blockMeshDict;
}
// * * * * * * * * * * * * * * * * * * * * * * * * * * * * * * * * * * * * * //

convertToMeters 1;

vertices        
(
	//Back face
	(0                  0                  0)      //00
	(50E-6              0                  0)      //01
	(50E-6          50E-6                  0)      //02
	(0              50E-6                  0)      //03
	//Front face
	(0                  0              10E-6)      //04
	(50E-6              0              10E-6)      //05
	(50E-6          50E-6              10E-6)      //06
	(0              50E-6              10E-6)      //07
);

blocks          
(
	hex ( 0  1  2  3  4  5  6  7) (45 45 1) simpleGrading (1 1 1)
);

edges           
(
);

boundary         
(
	Walls
	{
		type            wall;
		faces (
			( 1  2  6  5)
			( 2  3  7  6)
		);
	}

	SymPlane1
	{
		type         symmetryPlane;
		faces (
			( 0  1  5  4)
		);
	}

	SymPlane2
	{
		type         symmetryPlane;
		faces (
			( 0  4  7  3)
		);
	}

	topNbot 
	{
		type         empty;
		faces (
			( 0  3  2  1)
			( 4  5  6  7)
		);
	}
);

mergePatchPairs 
();

// ************************************************************************* //
