/*--------------------------------*- C++ -*----------------------------------*\
| =========                 |                                                 |
| \\      /  F ield         | OpenFOAM: The Open Source CFD Toolbox           |
|  \\    /   O peration     | Version:  2.4.0                                 |
|   \\  /    A nd           | Web:      www.OpenFOAM.org                      |
|    \\/     M anipulation  |                                                 |
\*---------------------------------------------------------------------------*/
FoamFile
{
    version     2.0;
    format      ascii;
    class       polyBoundaryMesh;
    location    "constant/polyMesh";
    object      boundary;
}
// * * * * * * * * * * * * * * * * * * * * * * * * * * * * * * * * * * * * * //

7
(
    VertWall
    {
        type            wall;
        inGroups        1(wall);
        nFaces          697;
        startFace       147745;
    }
    Vane
    {
        type            wall;
        inGroups        1(wall);
        nFaces          56;
        startFace       148442;
    }
    FreeStream
    {
        type            patch;
        nFaces          697;
        startFace       148498;
    }
    Inlet
    {
        type            patch;
        nFaces          42;
        startFace       149195;
    }
    Top
    {
        type            patch;
        nFaces          51;
        startFace       149237;
    }
    Bottom
    {
        type            patch;
        nFaces          107;
        startFace       149288;
    }
    Sides
    {
        type            empty;
        inGroups        1(empty);
        nFaces          148570;
        startFace       149395;
    }
)

// ************************************************************************* //
