/*--------------------------------*- C++ -*----------------------------------*\
| =========                 |                                                 |
| \\      /  F ield         | OpenFOAM: The Open Source CFD Toolbox           |
|  \\    /   O peration     | Version:  2.4.0                                 |
|   \\  /    A nd           | Web:      www.OpenFOAM.org                      |
|    \\/     M anipulation  |                                                 |
\*---------------------------------------------------------------------------*/
FoamFile
{
    version     2.0;
    format      ascii;
    class       polyBoundaryMesh;
    location    "constant/polyMesh";
    object      boundary;
}
// * * * * * * * * * * * * * * * * * * * * * * * * * * * * * * * * * * * * * //

11
(
    BotWall
    {
        type            wall;
        inGroups        1(wall);
        nFaces          1;
        startFace       123;
    }
    FreeStream
    {
        type            patch;
        nFaces          1;
        startFace       124;
    }
    FrontNBack
    {
        type            empty;
        inGroups        1(empty);
        nFaces          250;
        startFace       125;
    }
    LeftSide
    {
        type            symmetryPlane;
        inGroups        1(symmetryPlane);
        nFaces          0;
        startFace       375;
    }
    RightSide
    {
        type            symmetryPlane;
        inGroups        1(symmetryPlane);
        nFaces          0;
        startFace       375;
    }
    procBoundary7to4
    {
        type            processor;
        inGroups        1(processor);
        nFaces          50;
        startFace       375;
        matchTolerance  0.0001;
        transform       unknown;
        myProcNo        7;
        neighbProcNo    4;
    }
    procBoundary7to5
    {
        type            processor;
        inGroups        1(processor);
        nFaces          75;
        startFace       425;
        matchTolerance  0.0001;
        transform       unknown;
        myProcNo        7;
        neighbProcNo    5;
    }
    procBoundary7to6
    {
        type            processor;
        inGroups        1(processor);
        nFaces          1;
        startFace       500;
        matchTolerance  0.0001;
        transform       unknown;
        myProcNo        7;
        neighbProcNo    6;
    }
    procBoundary7to8
    {
        type            processor;
        inGroups        1(processor);
        nFaces          1;
        startFace       501;
        matchTolerance  0.0001;
        transform       unknown;
        myProcNo        7;
        neighbProcNo    8;
    }
    procBoundary7to9
    {
        type            processor;
        inGroups        1(processor);
        nFaces          75;
        startFace       502;
        matchTolerance  0.0001;
        transform       unknown;
        myProcNo        7;
        neighbProcNo    9;
    }
    procBoundary7to10
    {
        type            processor;
        inGroups        1(processor);
        nFaces          50;
        startFace       577;
        matchTolerance  0.0001;
        transform       unknown;
        myProcNo        7;
        neighbProcNo    10;
    }
)

// ************************************************************************* //
