/*--------------------------------*- C++ -*----------------------------------*\
| =========                 |                                                 |
| \\      /  F ield         | OpenFOAM: The Open Source CFD Toolbox           |
|  \\    /   O peration     | Version:  2.0.X                                 |
|   \\  /    A nd           | Web:      www.OpenFOAM.com                      |
|    \\/     M anipulation  |                                                 |
\*---------------------------------------------------------------------------*/
FoamFile
{
    version     2.0;
    format      ascii;
    class       dictionary;
    location    "system";
    object      setFieldsDict;
}
// * * * * * * * * * * * * * * * * * * * * * * * * * * * * * * * * * * * * * //


defaultFieldValues
(
        volScalarFieldValue alpha1 0
        volScalarFieldValue T -1
);

regions
(

    cylinderToCell
    {
		p1 (0 0 -1);
		p2 (0 0  1);
        radius 25E-6;
        fieldValues
        (
		volScalarFieldValue alpha1 1
		volScalarFieldValue T 0
        );
    }



/*
    boxToCell
    {
		box (25E-6 25E-6 -1) (75E-6 75E-6  1);

        fieldValues
        (
			volScalarFieldValue alpha1 1
			volScalarFieldValue T 0
        );
    }
*/

);



// *********************************************************************** //
