/*--------------------------------*- C++ -*----------------------------------*\
| =========                 |                                                 |
| \\      /  F ield         | OpenFOAM: The Open Source CFD Toolbox           |
|  \\    /   O peration     | Version:  2.4.0                                 |
|   \\  /    A nd           | Web:      www.OpenFOAM.org                      |
|    \\/     M anipulation  |                                                 |
\*---------------------------------------------------------------------------*/
FoamFile
{
    version     2.0;
    format      ascii;
    class       polyBoundaryMesh;
    location    "constant/polyMesh";
    object      boundary;
}
// * * * * * * * * * * * * * * * * * * * * * * * * * * * * * * * * * * * * * //

9
(
    BotWall
    {
        type            wall;
        inGroups        1(wall);
        nFaces          0;
        startFace       124;
    }
    FreeStream
    {
        type            patch;
        nFaces          0;
        startFace       124;
    }
    FrontNBack
    {
        type            empty;
        inGroups        1(empty);
        nFaces          250;
        startFace       124;
    }
    LeftSide
    {
        type            symmetryPlane;
        inGroups        1(symmetryPlane);
        nFaces          0;
        startFace       374;
    }
    RightSide
    {
        type            symmetryPlane;
        inGroups        1(symmetryPlane);
        nFaces          125;
        startFace       374;
    }
    procBoundary10to7
    {
        type            processor;
        inGroups        1(processor);
        nFaces          50;
        startFace       499;
        matchTolerance  0.0001;
        transform       unknown;
        myProcNo        10;
        neighbProcNo    7;
    }
    procBoundary10to8
    {
        type            processor;
        inGroups        1(processor);
        nFaces          75;
        startFace       549;
        matchTolerance  0.0001;
        transform       unknown;
        myProcNo        10;
        neighbProcNo    8;
    }
    procBoundary10to9
    {
        type            processor;
        inGroups        1(processor);
        nFaces          1;
        startFace       624;
        matchTolerance  0.0001;
        transform       unknown;
        myProcNo        10;
        neighbProcNo    9;
    }
    procBoundary10to11
    {
        type            processor;
        inGroups        1(processor);
        nFaces          1;
        startFace       625;
        matchTolerance  0.0001;
        transform       unknown;
        myProcNo        10;
        neighbProcNo    11;
    }
)

// ************************************************************************* //
