/*--------------------------------*- C++ -*----------------------------------*\
| =========                 |                                                 |
| \\      /  F ield         | OpenFOAM: The Open Source CFD Toolbox           |
|  \\    /   O peration     | Version:  2.4.0                                 |
|   \\  /    A nd           | Web:      www.OpenFOAM.org                      |
|    \\/     M anipulation  |                                                 |
\*---------------------------------------------------------------------------*/
FoamFile
{
    version     2.0;
    format      ascii;
    class       polyBoundaryMesh;
    location    "constant/polyMesh";
    object      boundary;
}
// * * * * * * * * * * * * * * * * * * * * * * * * * * * * * * * * * * * * * //

5
(
    BotWall
    {
        type            wall;
        inGroups        1(wall);
        nFaces          300;
        startFace       179400;
    }
    FreeStream
    {
        type            patch;
        nFaces          300;
        startFace       179700;
    }
    FrontNBack
    {
        type            empty;
        inGroups        1(empty);
        nFaces          180000;
        startFace       180000;
    }
    LeftSide
    {
        type            symmetryPlane;
        inGroups        1(symmetryPlane);
        nFaces          300;
        startFace       360000;
    }
    RightSide
    {
        type            symmetryPlane;
        inGroups        1(symmetryPlane);
        nFaces          300;
        startFace       360300;
    }
)

// ************************************************************************* //
