/*--------------------------------*- C++ -*----------------------------------*\
| =========                 |                                                 |
| \\      /  F ield         | OpenFOAM: The Open Source CFD Toolbox           |
|  \\    /   O peration     | Version:  2.4.0                                 |
|   \\  /    A nd           | Web:      www.OpenFOAM.org                      |
|    \\/     M anipulation  |                                                 |
\*---------------------------------------------------------------------------*/
FoamFile
{
    version     2.0;
    format      ascii;
    class       polyBoundaryMesh;
    location    "constant/polyMesh";
    object      boundary;
}
// * * * * * * * * * * * * * * * * * * * * * * * * * * * * * * * * * * * * * //

10
(
    VertWall
    {
        type            wall;
        inGroups        1(wall);
        nFaces          59;
        startFace       4387;
    }
    Vane
    {
        type            wall;
        inGroups        1(wall);
        nFaces          0;
        startFace       4446;
    }
    FreeStream
    {
        type            patch;
        nFaces          0;
        startFace       4446;
    }
    Inlet
    {
        type            patch;
        nFaces          0;
        startFace       4446;
    }
    Top
    {
        type            patch;
        nFaces          0;
        startFace       4446;
    }
    Bottom
    {
        type            patch;
        nFaces          0;
        startFace       4446;
    }
    Sides
    {
        type            empty;
        inGroups        1(empty);
        nFaces          4484;
        startFace       4446;
    }
    procBoundary11to6
    {
        type            processor;
        inGroups        1(processor);
        nFaces          39;
        startFace       8930;
        matchTolerance  0.0001;
        transform       unknown;
        myProcNo        11;
        neighbProcNo    6;
    }
    procBoundary11to9
    {
        type            processor;
        inGroups        1(processor);
        nFaces          38;
        startFace       8969;
        matchTolerance  0.0001;
        transform       unknown;
        myProcNo        11;
        neighbProcNo    9;
    }
    procBoundary11to10
    {
        type            processor;
        inGroups        1(processor);
        nFaces          58;
        startFace       9007;
        matchTolerance  0.0001;
        transform       unknown;
        myProcNo        11;
        neighbProcNo    10;
    }
)

// ************************************************************************* //
