/*--------------------------------*- C++ -*----------------------------------*\
| =========                 |                                                 |
| \\      /  F ield         | OpenFOAM: The Open Source CFD Toolbox           |
|  \\    /   O peration     | Version:  1.7.0                                 |
|   \\  /    A nd           | Web:      www.OpenFOAM.com                      |
|    \\/     M anipulation  |                                                 |
\*---------------------------------------------------------------------------*/
FoamFile
{
    version     2.0;
    format      ascii;
    class       dictionary;
    object      blockMeshDict;
}
// * * * * * * * * * * * * * * * * * * * * * * * * * * * * * * * * * * * * * //
convertToMeters 1;

vertices        
(
//First Block
	//Back face
	(0         0          0)           //00
	(0.001     0          0)           //01
	(0.001     0.02       0)           //02
	(0         0.02       0)           //03
	//Front face
	(0         0          0.0005)      //04
	(0.001     0          0.0005)      //05
	(0.001     0.02       0.0005)      //06
	(0         0.02       0.0005)      //07
//Second Block
        //Back face
	(0.001     0          0)           //08
	(0.002     0          0)           //09
	(0.002     0.02       0)           //10
	(0.001     0.02       0)           //11
	//Front face
	(0.001     0          0.0005)      //12
	(0.002     0          0.0005)      //13
	(0.002     0.02       0.0005)      //14
	(0.001     0.02       0.0005)      //15
//Third Block (Bigger One)
        //Back face
	(0.002     0          0)           //16
	(0.010     0          0)           //17
	(0.010     0.02       0)           //18
	(0.002     0.02       0)           //19
	//Front face
	(0.002    0          0.0005)       //20
	(0.010    0          0.0005)       //21
	(0.010    0.02       0.0005)       //22
	(0.002    0.02       0.0005)       //23
);

blocks          
(
	hex ( 0  1  2  3  4  5  6  7) (50 80 1) simpleGrading (1 1 1)	//00
	hex ( 1  9 10  2  5 13 14  6) (50 80 1) simpleGrading (1 1 1)	//01
	hex ( 9  17 18 10 13 21 22 14)(300 80 1) simpleGrading (5 1 1)	//02
);

edges           
(
);

boundary         
(
	Inlet
	{
		type     inletOutlet;
		faces
		(
			( 2  3  7  6)
		);
	}

	BotOutlet1
	{
		type     inletOutlet;
		faces
		(
			( 0  1  5  4)
                        ( 1  9 13  5)
                        ( 9 17 21 13)
		);
	}

	BotOutlet2
	{
		type     inletOutlet;
		faces
		(
			( 0  1  5  4)
                        ( 1  9 13  5)
                        ( 9 17 21 13)
		);
	}

       TopInlet
	{
		type     inletOutlet;
		faces
		(
                        (10 2 6 14)
			(18 10 14 22)
		);
	}

	FreeStream
	{
		type     patch;
		faces
		(
			(17 18 22 21)
		);
	}

	FrontNBack
	{
		type     empty;
		faces		
		(
			( 0  3  2  1)
			( 4  5  6  7)
                        (1 2 10 9)
                        (5 13 14 6)
                        (9 10 18 17)
                        (13 21 22 14)
		);
	}

	LeftSide
	{
		type     wall;
		faces
		(
			( 0  4  7  3)
		);
	}

);

mergePatchPairs 
();

// ************************************************************************* //
