/*--------------------------------*- C++ -*----------------------------------*\
| =========                 |                                                 |
| \\      /  F ield         | OpenFOAM: The Open Source CFD Toolbox           |
|  \\    /   O peration     | Version:  2.4.0                                 |
|   \\  /    A nd           | Web:      www.OpenFOAM.org                      |
|    \\/     M anipulation  |                                                 |
\*---------------------------------------------------------------------------*/
FoamFile
{
    version     2.0;
    format      ascii;
    class       polyBoundaryMesh;
    location    "constant/polyMesh";
    object      boundary;
}
// * * * * * * * * * * * * * * * * * * * * * * * * * * * * * * * * * * * * * //

5
(
    BotWall
    {
        type            wall;
        inGroups        1(wall);
        nFaces          500;
        startFace       499000;
    }
    FreeStream
    {
        type            patch;
        nFaces          500;
        startFace       499500;
    }
    FrontNBack
    {
        type            empty;
        inGroups        1(empty);
        nFaces          500000;
        startFace       500000;
    }
    LeftSide
    {
        type            symmetryPlane;
        inGroups        1(symmetryPlane);
        nFaces          500;
        startFace       1000000;
    }
    RightSide
    {
        type            symmetryPlane;
        inGroups        1(symmetryPlane);
        nFaces          500;
        startFace       1000500;
    }
)

// ************************************************************************* //
