/*--------------------------------*- C++ -*----------------------------------*\
| =========                 |                                                 |
| \\      /  F ield         | OpenFOAM: The Open Source CFD Toolbox           |
|  \\    /   O peration     | Version:  2.4.0                                 |
|   \\  /    A nd           | Web:      www.OpenFOAM.org                      |
|    \\/     M anipulation  |                                                 |
\*---------------------------------------------------------------------------*/
FoamFile
{
    version     2.0;
    format      ascii;
    class       polyBoundaryMesh;
    location    "constant/polyMesh";
    object      boundary;
}
// * * * * * * * * * * * * * * * * * * * * * * * * * * * * * * * * * * * * * //

11
(
    VertWall
    {
        type            wall;
        inGroups        1(wall);
        nFaces          0;
        startFace       4400;
    }
    Vane
    {
        type            wall;
        inGroups        1(wall);
        nFaces          0;
        startFace       4400;
    }
    FreeStream
    {
        type            patch;
        nFaces          90;
        startFace       4400;
    }
    Inlet
    {
        type            patch;
        nFaces          0;
        startFace       4490;
    }
    Top
    {
        type            patch;
        nFaces          0;
        startFace       4490;
    }
    Bottom
    {
        type            patch;
        nFaces          0;
        startFace       4490;
    }
    Sides
    {
        type            empty;
        inGroups        1(empty);
        nFaces          4518;
        startFace       4490;
    }
    procBoundary10to0
    {
        type            processor;
        inGroups        1(processor);
        nFaces          19;
        startFace       9008;
        matchTolerance  0.0001;
        transform       unknown;
        myProcNo        10;
        neighbProcNo    0;
    }
    procBoundary10to6
    {
        type            processor;
        inGroups        1(processor);
        nFaces          28;
        startFace       9027;
        matchTolerance  0.0001;
        transform       unknown;
        myProcNo        10;
        neighbProcNo    6;
    }
    procBoundary10to9
    {
        type            processor;
        inGroups        1(processor);
        nFaces          41;
        startFace       9055;
        matchTolerance  0.0001;
        transform       unknown;
        myProcNo        10;
        neighbProcNo    9;
    }
    procBoundary10to11
    {
        type            processor;
        inGroups        1(processor);
        nFaces          58;
        startFace       9096;
        matchTolerance  0.0001;
        transform       unknown;
        myProcNo        10;
        neighbProcNo    11;
    }
)

// ************************************************************************* //
