/*--------------------------------*- C++ -*----------------------------------*\
| =========                 |                                                 |
| \\      /  F ield         | OpenFOAM: The Open Source CFD Toolbox           |
|  \\    /   O peration     | Version:  2.4.0                                 |
|   \\  /    A nd           | Web:      www.OpenFOAM.org                      |
|    \\/     M anipulation  |                                                 |
\*---------------------------------------------------------------------------*/
FoamFile
{
    version     2.0;
    format      ascii;
    class       polyBoundaryMesh;
    location    "constant/polyMesh";
    object      boundary;
}
// * * * * * * * * * * * * * * * * * * * * * * * * * * * * * * * * * * * * * //

9
(
    VertWall
    {
        type            wall;
        inGroups        1(wall);
        nFaces          43;
        startFace       4445;
    }
    Vane
    {
        type            wall;
        inGroups        1(wall);
        nFaces          0;
        startFace       4488;
    }
    FreeStream
    {
        type            patch;
        nFaces          28;
        startFace       4488;
    }
    Inlet
    {
        type            patch;
        nFaces          0;
        startFace       4516;
    }
    Top
    {
        type            patch;
        nFaces          0;
        startFace       4516;
    }
    Bottom
    {
        type            patch;
        nFaces          0;
        startFace       4516;
    }
    Sides
    {
        type            empty;
        inGroups        1(empty);
        nFaces          4554;
        startFace       4516;
    }
    procBoundary2to1
    {
        type            processor;
        inGroups        1(processor);
        nFaces          66;
        startFace       9070;
        matchTolerance  0.0001;
        transform       unknown;
        myProcNo        2;
        neighbProcNo    1;
    }
    procBoundary2to4
    {
        type            processor;
        inGroups        1(processor);
        nFaces          81;
        startFace       9136;
        matchTolerance  0.0001;
        transform       unknown;
        myProcNo        2;
        neighbProcNo    4;
    }
)

// ************************************************************************* //
