/*--------------------------------*- C++ -*----------------------------------*\
| =========                 |                                                 |
| \\      /  F ield         | OpenFOAM: The Open Source CFD Toolbox           |
|  \\    /   O peration     | Version:  1.7.0                                 |
|   \\  /    A nd           | Web:      www.OpenFOAM.com                      |
|    \\/     M anipulation  |                                                 |
\*---------------------------------------------------------------------------*/
FoamFile
{
    version     2.0;
    format      ascii;
    class       dictionary;
    location    "system";
    object      fvSchemes;
}
// * * * * * * * * * * * * * * * * * * * * * * * * * * * * * * * * * * * * * //

ddtSchemes
{
    default         Euler;
}

interpolationSchemes
{
    default         linear;
}

divSchemes
{
	div(rhoPhi,U)                 Gauss vanLeerV; //Gauss linearUpwindV grad(U);;
	div(phi,alpha)                Gauss vanLeer; 
	div(phirb,alpha)              Gauss interfaceCompression;
	div(R)                        Gauss linear;
	//div(rhoPhi,U)                 Gauss linearUpwind grad(U);
	div(rhoPhi,U)                 Gauss vanLeer;
	div((muEff*dev(T(grad(U)))))  Gauss linear;
	default                       Gauss linear;
}

gradSchemes
{
    default         Gauss linear;
}

laplacianSchemes
{
    default         Gauss linear limited 0.5;
}

snGradSchemes
{
    default              limited 0.5;
}

fluxRequired
{
    default         none;
    p_rgh;
    pcorr;
    alpha1;
}


// ************************************************************************* //
