/*--------------------------------*- C++ -*----------------------------------*\
| =========                 |                                                 |
| \\      /  F ield         | OpenFOAM: The Open Source CFD Toolbox           |
|  \\    /   O peration     | Version:  2.4.0                                 |
|   \\  /    A nd           | Web:      www.OpenFOAM.org                      |
|    \\/     M anipulation  |                                                 |
\*---------------------------------------------------------------------------*/
FoamFile
{
    version     2.0;
    format      ascii;
    class       polyBoundaryMesh;
    location    "constant/polyMesh";
    object      boundary;
}
// * * * * * * * * * * * * * * * * * * * * * * * * * * * * * * * * * * * * * //

7
(
    BotWall
    {
        type            wall;
        inGroups        1(wall);
        nFaces          0;
        startFace       220;
    }
    FreeStream
    {
        type            patch;
        nFaces          0;
        startFace       220;
    }
    FrontNBack
    {
        type            empty;
        inGroups        1(empty);
        nFaces          250;
        startFace       220;
    }
    LeftSide
    {
        type            symmetryPlane;
        inGroups        1(symmetryPlane);
        nFaces          25;
        startFace       470;
    }
    RightSide
    {
        type            symmetryPlane;
        inGroups        1(symmetryPlane);
        nFaces          25;
        startFace       495;
    }
    procBoundary1to0
    {
        type            processor;
        inGroups        1(processor);
        nFaces          5;
        startFace       520;
        matchTolerance  0.0001;
        transform       unknown;
        myProcNo        1;
        neighbProcNo    0;
    }
    procBoundary1to2
    {
        type            processor;
        inGroups        1(processor);
        nFaces          5;
        startFace       525;
        matchTolerance  0.0001;
        transform       unknown;
        myProcNo        1;
        neighbProcNo    2;
    }
)

// ************************************************************************* //
