/*--------------------------------*- C++ -*----------------------------------*\
| =========                 |                                                 |
| \\      /  F ield         | OpenFOAM: The Open Source CFD Toolbox           |
|  \\    /   O peration     | Version:  2.4.0                                 |
|   \\  /    A nd           | Web:      www.OpenFOAM.org                      |
|    \\/     M anipulation  |                                                 |
\*---------------------------------------------------------------------------*/
FoamFile
{
    version     2.0;
    format      ascii;
    class       polyBoundaryMesh;
    location    "constant/polyMesh";
    object      boundary;
}
// * * * * * * * * * * * * * * * * * * * * * * * * * * * * * * * * * * * * * //

10
(
    VertWall
    {
        type            wall;
        inGroups        1(wall);
        nFaces          36;
        startFace       4465;
    }
    Vane
    {
        type            wall;
        inGroups        1(wall);
        nFaces          0;
        startFace       4501;
    }
    FreeStream
    {
        type            patch;
        nFaces          33;
        startFace       4501;
    }
    Inlet
    {
        type            patch;
        nFaces          0;
        startFace       4534;
    }
    Top
    {
        type            patch;
        nFaces          0;
        startFace       4534;
    }
    Bottom
    {
        type            patch;
        nFaces          0;
        startFace       4534;
    }
    Sides
    {
        type            empty;
        inGroups        1(empty);
        nFaces          4568;
        startFace       4534;
    }
    procBoundary6to7
    {
        type            processor;
        inGroups        1(processor);
        nFaces          70;
        startFace       9102;
        matchTolerance  0.0001;
        transform       unknown;
        myProcNo        6;
        neighbProcNo    7;
    }
    procBoundary6to10
    {
        type            processor;
        inGroups        1(processor);
        nFaces          28;
        startFace       9172;
        matchTolerance  0.0001;
        transform       unknown;
        myProcNo        6;
        neighbProcNo    10;
    }
    procBoundary6to11
    {
        type            processor;
        inGroups        1(processor);
        nFaces          39;
        startFace       9200;
        matchTolerance  0.0001;
        transform       unknown;
        myProcNo        6;
        neighbProcNo    11;
    }
)

// ************************************************************************* //
