/*--------------------------------*- C++ -*----------------------------------*\
| =========                 |                                                 |
| \\      /  F ield         | OpenFOAM: The Open Source CFD Toolbox           |
|  \\    /   O peration     | Version:  2.4.0                                 |
|   \\  /    A nd           | Web:      www.OpenFOAM.org                      |
|    \\/     M anipulation  |                                                 |
\*---------------------------------------------------------------------------*/
FoamFile
{
    version     2.0;
    format      ascii;
    class       polyBoundaryMesh;
    location    "constant/polyMesh";
    object      boundary;
}
// * * * * * * * * * * * * * * * * * * * * * * * * * * * * * * * * * * * * * //

10
(
    VertWall
    {
        type            wall;
        inGroups        1(wall);
        nFaces          52;
        startFace       4411;
    }
    Vane
    {
        type            wall;
        inGroups        1(wall);
        nFaces          0;
        startFace       4463;
    }
    FreeStream
    {
        type            patch;
        nFaces          24;
        startFace       4463;
    }
    Inlet
    {
        type            patch;
        nFaces          0;
        startFace       4487;
    }
    Top
    {
        type            patch;
        nFaces          0;
        startFace       4487;
    }
    Bottom
    {
        type            patch;
        nFaces          0;
        startFace       4487;
    }
    Sides
    {
        type            empty;
        inGroups        1(empty);
        nFaces          4544;
        startFace       4487;
    }
    procBoundary4to2
    {
        type            processor;
        inGroups        1(processor);
        nFaces          81;
        startFace       9031;
        matchTolerance  0.0001;
        transform       unknown;
        myProcNo        4;
        neighbProcNo    2;
    }
    procBoundary4to3
    {
        type            processor;
        inGroups        1(processor);
        nFaces          12;
        startFace       9112;
        matchTolerance  0.0001;
        transform       unknown;
        myProcNo        4;
        neighbProcNo    3;
    }
    procBoundary4to5
    {
        type            processor;
        inGroups        1(processor);
        nFaces          97;
        startFace       9124;
        matchTolerance  0.0001;
        transform       unknown;
        myProcNo        4;
        neighbProcNo    5;
    }
)

// ************************************************************************* //
