/*--------------------------------*- C++ -*----------------------------------*\
| =========                 |                                                 |
| \\      /  F ield         | OpenFOAM: The Open Source CFD Toolbox           |
|  \\    /   O peration     | Version:  2.4.0                                 |
|   \\  /    A nd           | Web:      www.OpenFOAM.org                      |
|    \\/     M anipulation  |                                                 |
\*---------------------------------------------------------------------------*/
FoamFile
{
    version     2.0;
    format      ascii;
    class       polyBoundaryMesh;
    location    "constant/polyMesh";
    object      boundary;
}
// * * * * * * * * * * * * * * * * * * * * * * * * * * * * * * * * * * * * * //

5
(
    Inlet
    {
        type            cyclic;
        inGroups        1(cyclic);
        nFaces          100;
        startFace       39700;
        matchTolerance  0.0001;
        transform       unknown;
        neighbourPatch  BotOutlet;
    }
    BotOutlet
    {
        type            cyclic;
        inGroups        1(cyclic);
        nFaces          100;
        startFace       39800;
        matchTolerance  0.0001;
        transform       unknown;
        neighbourPatch  Inlet;
    }
    FreeStream
    {
        type            patch;
        nFaces          200;
        startFace       39900;
    }
    FrontNBack
    {
        type            empty;
        inGroups        1(empty);
        nFaces          40000;
        startFace       40100;
    }
    LeftSide
    {
        type            wall;
        inGroups        1(wall);
        nFaces          200;
        startFace       80100;
    }
)

// ************************************************************************* //
