/*--------------------------------*- C++ -*----------------------------------*\
| =========                 |                                                 |
| \\      /  F ield         | OpenFOAM: The Open Source CFD Toolbox           |
|  \\    /   O peration     | Version:  1.7.0                                 |
|   \\  /    A nd           | Web:      www.OpenFOAM.com                      |
|    \\/     M anipulation  |                                                 |
\*---------------------------------------------------------------------------*/
FoamFile
{
    version     2.0;
    format      ascii;
    class       dictionary;
    object      blockMeshDict;
}
// * * * * * * * * * * * * * * * * * * * * * * * * * * * * * * * * * * * * * //
convertToMeters 1;

vertices        
(
	//Back face
	(0          0           0)           //00
	(0.25       0           0)           //01
	(0.25       0.25        0)           //02
	(0          0.25        0)           //03
	//Front face
	(0          0           0.01)        //04
	(0.25       0           0.01)        //05
	(0.25       0.25        0.01)        //06
	(0          0.25        0.01)        //07
);

blocks          
(
	hex ( 0  1  2  3  4  5  6  7) (40 80 1) simpleGrading (1 1 1)	//00
);

edges           
(
);

boundary         
(
	Base
	{
		type     wall;
		faces
		(
			( 0  1  5  4)
		);
	}

	OpenTop
	{
		type     patch;
		faces
		(
			( 2  3  7  6)
		);
	}

	FrontNBack
	{
		type     empty;
		faces		
		(
			( 0  3  2  1)
			( 4  5  6  7)
		);
	}

	Sides
	{
		type     wall;
		faces
		(
			( 0  4  7  3)
			( 1  2  6  5)
		);
	}
);

mergePatchPairs 
();

// ************************************************************************* //
