/*--------------------------------*- C++ -*----------------------------------*\
| =========                 |                                                 |
| \\      /  F ield         | OpenFOAM: The Open Source CFD Toolbox           |
|  \\    /   O peration     | Version:  2.4.0                                 |
|   \\  /    A nd           | Web:      www.OpenFOAM.org                      |
|    \\/     M anipulation  |                                                 |
\*---------------------------------------------------------------------------*/
FoamFile
{
    version     2.0;
    format      ascii;
    class       polyBoundaryMesh;
    location    "constant/polyMesh";
    object      boundary;
}
// * * * * * * * * * * * * * * * * * * * * * * * * * * * * * * * * * * * * * //

4
(
    Base
    {
        type            wall;
        inGroups        1(wall);
        nFaces          40;
        startFace       3120;
    }
    OpenTop
    {
        type            patch;
        nFaces          40;
        startFace       3160;
    }
    FrontNBack
    {
        type            empty;
        inGroups        1(empty);
        nFaces          3200;
        startFace       3200;
    }
    Sides
    {
        type            wall;
        inGroups        1(wall);
        nFaces          80;
        startFace       6400;
    }
)

// ************************************************************************* //
