/*--------------------------------*- C++ -*----------------------------------*\
| =========                 |                                                 |
| \\      /  F ield         | OpenFOAM: The Open Source CFD Toolbox           |
|  \\    /   O peration     | Version:  1.7.0                                 |
|   \\  /    A nd           | Web:      www.OpenFOAM.com                      |
|    \\/     M anipulation  |                                                 |
\*---------------------------------------------------------------------------*/
FoamFile
{
    version     2.0;
    format      ascii;
    class       dictionary;
    location    "constant";
    object      transportProperties;
}
// * * * * * * * * * * * * * * * * * * * * * * * * * * * * * * * * * * * * * //

twoPhase
{
    transportModel  twoPhase;
    phase1          phase1;
    phase2          phase2;
}

//Water-steam, 373.15K
phase1
{
    transportModel  		Newtonian;
    nu              		nu [ 0 2 -1 0 0 0 0 ] 2.32E-4; //2.32E-6; 2.32E-7;
    rho             		rho [ 1 -3 0 0 0 0 0 ] 937.2;
    thermalTransportModel	Fourier;
    lambda			lambda [1 1 -3 -1 0 0 0] 0.688;
    cp				cp [ 0 2 -2 -1 0 0 0] 4256;
}

phase2
{
    transportModel		Newtonian;
    nu				nu [ 0 2 -1 0 0 0 0 ] 9.54E-3; //9.54E-6;
    rho				rho [ 1 -3 0 0 0 0 0 ] 0.5981;
    thermalTransportModel	Fourier;
    lambda			lambda [1 1 -3 -1 0 0 0] 0.0272;
    cp				cp [ 0 2 -2 -1 0 0 0] 2158;
}

sigma           sigma [ 1 0 -2 0 0 0 0 ] 0.0536;
T_0			T_0 [0 0 0 1 0 0 0] 373.15;


thermalPhaseChange
{
  	model         interfacialResistance;
	h_lv          h_lv  [0 2 -2 0 0 0 0 ] 2183E3;
	T_sat         T_sat [0 0 0 1 0 0 0] 373.15;
	CondThresh    0.50; //Interface threshold for condensing cell pairs
	EvapThresh    -1; //Interface threshold for evaporating cell pairs - no evap!
	RelaxFac      0.50; //Under-relax phase change rate in each time step
	sigmaHat	  sigmaHat [0 0 0 0 0 0 0] 0.03; // accomodation constant
	//sigmaHat	  0.03;
	R_g			  R_g [0 2 -2 -1 0 0 0] 461.5; // Specific ideal gas constant j/kg-k
	DilatationSource	no;
	PhaseFractionSource	yes;
}

surfaceTensionForce
{
	model		Brackbill;
}


// ************************************************************************* //
