/*--------------------------------*- C++ -*----------------------------------*\
| =========                 |                                                 |
| \\      /  F ield         | OpenFOAM: The Open Source CFD Toolbox           |
|  \\    /   O peration     | Version:  2.0.x                                 |
|   \\  /    A nd           | Web:      www.OpenFOAM.org                      |
|    \\/     M anipulation  |                                                 |
\*---------------------------------------------------------------------------*/
FoamFile
{
    version     2.0;
    format      ascii;
    class       volVectorField;
    location    "0";
    object      U;
}
// * * * * * * * * * * * * * * * * * * * * * * * * * * * * * * * * * * * * * //

dimensions      [0 1 -1 0 0 0 0];

internalField   uniform (0 -0.0774885 0);

boundaryField
{
    Inlet
    {
	type		groovyBC; 
	globalScopes	( globalVars );
	valueExpression	"pos().x<h_in ? vector(0,-(2337.511*(pos().x-(7541.478*pow(pos().x,2)))),0) : vector(0,-0.0774885,0)";
	value		uniform (0 0 0);
    }

    BotOutlet1
    {
        type            zeroGradient;
    }

    BotOutlet2
    {
        type            zeroGradient;
    }

    TopInlet
    {
        type            zeroGradient;
    }

    FreeStream
    {
        type            zeroGradient;
    }

    FrontNBack
    {
        type            empty;
    }
    
    //No Slip BC at the wall
    LeftSide
    {
        type            fixedValue;
        value           uniform (0 0 0);
    }

}


// ************************************************************************* //
