/*--------------------------------*- C++ -*----------------------------------*\
| =========                 |                                                 |
| \\      /  F ield         | OpenFOAM: The Open Source CFD Toolbox           |
|  \\    /   O peration     | Version:  2.4.0                                 |
|   \\  /    A nd           | Web:      www.OpenFOAM.org                      |
|    \\/     M anipulation  |                                                 |
\*---------------------------------------------------------------------------*/
FoamFile
{
    version     2.0;
    format      binary;
    class       polyBoundaryMesh;
    location    "constant/polyMesh";
    object      boundary;
}
// * * * * * * * * * * * * * * * * * * * * * * * * * * * * * * * * * * * * * //

4
(
    FarStream
    {
        type            patch;
        nFaces          7500;
        startFace       367500;
    }
    sp1
    {
        type            symmetryPlane;
        inGroups        1(symmetryPlane);
        nFaces          2500;
        startFace       375000;
    }
    sp2
    {
        type            symmetryPlane;
        inGroups        1(symmetryPlane);
        nFaces          2500;
        startFace       377500;
    }
    Base
    {
        type            wall;
        inGroups        1(wall);
        nFaces          2500;
        startFace       380000;
    }
)

// ************************************************************************* //
