/*--------------------------------*- C++ -*----------------------------------*\
| =========                 |                                                 |
| \\      /  F ield         | OpenFOAM: The Open Source CFD Toolbox           |
|  \\    /   O peration     | Version:  2.4.0                                 |
|   \\  /    A nd           | Web:      www.OpenFOAM.org                      |
|    \\/     M anipulation  |                                                 |
\*---------------------------------------------------------------------------*/
FoamFile
{
    version     2.0;
    format      ascii;
    class       polyBoundaryMesh;
    location    "constant/polyMesh";
    object      boundary;
}
// * * * * * * * * * * * * * * * * * * * * * * * * * * * * * * * * * * * * * //

9
(
    VertWall
    {
        type            wall;
        inGroups        1(wall);
        nFaces          28;
        startFace       4455;
    }
    Vane
    {
        type            wall;
        inGroups        1(wall);
        nFaces          0;
        startFace       4483;
    }
    FreeStream
    {
        type            patch;
        nFaces          39;
        startFace       4483;
    }
    Inlet
    {
        type            patch;
        nFaces          0;
        startFace       4522;
    }
    Top
    {
        type            patch;
        nFaces          0;
        startFace       4522;
    }
    Bottom
    {
        type            patch;
        nFaces          0;
        startFace       4522;
    }
    Sides
    {
        type            empty;
        inGroups        1(empty);
        nFaces          4560;
        startFace       4522;
    }
    procBoundary7to6
    {
        type            processor;
        inGroups        1(processor);
        nFaces          70;
        startFace       9082;
        matchTolerance  0.0001;
        transform       unknown;
        myProcNo        7;
        neighbProcNo    6;
    }
    procBoundary7to8
    {
        type            processor;
        inGroups        1(processor);
        nFaces          73;
        startFace       9152;
        matchTolerance  0.0001;
        transform       unknown;
        myProcNo        7;
        neighbProcNo    8;
    }
)

// ************************************************************************* //
