/*--------------------------------*- C++ -*----------------------------------*\
| =========                 |                                                 |
| \\      /  F ield         | OpenFOAM: The Open Source CFD Toolbox           |
|  \\    /   O peration     | Version:  2.4.0                                 |
|   \\  /    A nd           | Web:      www.OpenFOAM.org                      |
|    \\/     M anipulation  |                                                 |
\*---------------------------------------------------------------------------*/
FoamFile
{
    version     2.0;
    format      binary;
    class       polyBoundaryMesh;
    location    "constant/polyMesh";
    object      boundary;
}
// * * * * * * * * * * * * * * * * * * * * * * * * * * * * * * * * * * * * * //

6
(
    backWall
    {
        type            wall;
        inGroups        1(wall);
        nFaces          28;
        startFace       1512;
    }
    freeStream
    {
        type            patch;
        nFaces          56;
        startFace       1540;
    }
    Axis
    {
        type            symmetryPlane;
        inGroups        1(symmetryPlane);
        nFaces          0;
        startFace       1596;
    }
    FrontNBack
    {
        type            empty;
        inGroups        1(empty);
        nFaces          0;
        startFace       1596;
    }
    FrontNBack_pos
    {
        type            wedge;
        inGroups        1(wedge);
        nFaces          784;
        startFace       1596;
    }
    FrontNBack_neg
    {
        type            wedge;
        inGroups        1(wedge);
        nFaces          784;
        startFace       2380;
    }
)

// ************************************************************************* //
