/*--------------------------------*- C++ -*----------------------------------*\
| =========                 |                                                 |
| \\      /  F ield         | OpenFOAM: The Open Source CFD Toolbox           |
|  \\    /   O peration     | Version:  2.4.0                                 |
|   \\  /    A nd           | Web:      www.OpenFOAM.org                      |
|    \\/     M anipulation  |                                                 |
\*---------------------------------------------------------------------------*/
FoamFile
{
    version     2.0;
    format      ascii;
    class       polyBoundaryMesh;
    location    "constant/polyMesh";
    object      boundary;
}
// * * * * * * * * * * * * * * * * * * * * * * * * * * * * * * * * * * * * * //

7
(
    Inlet
    {
        type            patch;
        nFaces          20;
        startFace       9850;
    }
    BotOutlet1
    {
        type            patch;
        nFaces          20;
        startFace       9870;
    }
    BotOutlet2
    {
        type            patch;
        nFaces          80;
        startFace       9890;
    }
    TopInlet
    {
        type            patch;
        nFaces          80;
        startFace       9970;
    }
    FreeStream
    {
        type            patch;
        nFaces          50;
        startFace       10050;
    }
    FrontNBack
    {
        type            empty;
        inGroups        1(empty);
        nFaces          10000;
        startFace       10100;
    }
    LeftSide
    {
        type            wall;
        inGroups        1(wall);
        nFaces          50;
        startFace       20100;
    }
)

// ************************************************************************* //
