/*--------------------------------*- C++ -*----------------------------------*\
| =========                 |                                                 |
| \\      /  F ield         | OpenFOAM: The Open Source CFD Toolbox           |
|  \\    /   O peration     | Version:  2.4.0                                 |
|   \\  /    A nd           | Web:      www.OpenFOAM.org                      |
|    \\/     M anipulation  |                                                 |
\*---------------------------------------------------------------------------*/
FoamFile
{
    version     2.0;
    format      ascii;
    class       polyBoundaryMesh;
    location    "constant/polyMesh";
    object      boundary;
}
// * * * * * * * * * * * * * * * * * * * * * * * * * * * * * * * * * * * * * //

7
(
    VertWall
    {
        type            wall;
        inGroups        1(wall);
        nFaces          413;
        startFace       53816;
    }
    Vane
    {
        type            wall;
        inGroups        1(wall);
        nFaces          34;
        startFace       54229;
    }
    FreeStream
    {
        type            patch;
        nFaces          413;
        startFace       54263;
    }
    Inlet
    {
        type            patch;
        nFaces          28;
        startFace       54676;
    }
    Top
    {
        type            patch;
        nFaces          30;
        startFace       54704;
    }
    Bottom
    {
        type            patch;
        nFaces          66;
        startFace       54734;
    }
    Sides
    {
        type            empty;
        inGroups        1(empty);
        nFaces          54308;
        startFace       54800;
    }
)

// ************************************************************************* //
