/*--------------------------------*- C++ -*----------------------------------*\
| =========                 |                                                 |
| \\      /  F ield         | OpenFOAM: The Open Source CFD Toolbox           |
|  \\    /   O peration     | Version:  2.4.0                                 |
|   \\  /    A nd           | Web:      www.OpenFOAM.org                      |
|    \\/     M anipulation  |                                                 |
\*---------------------------------------------------------------------------*/
FoamFile
{
    version     2.0;
    format      ascii;
    class       polyBoundaryMesh;
    location    "constant/polyMesh";
    object      boundary;
}
// * * * * * * * * * * * * * * * * * * * * * * * * * * * * * * * * * * * * * //

7
(
    VertWall
    {
        type            wall;
        inGroups        1(wall);
        nFaces          536;
        startFace       87989;
    }
    Vane
    {
        type            wall;
        inGroups        1(wall);
        nFaces          43;
        startFace       88525;
    }
    FreeStream
    {
        type            patch;
        nFaces          536;
        startFace       88568;
    }
    Inlet
    {
        type            patch;
        nFaces          33;
        startFace       89104;
    }
    Top
    {
        type            patch;
        nFaces          39;
        startFace       89137;
    }
    Bottom
    {
        type            patch;
        nFaces          83;
        startFace       89176;
    }
    Sides
    {
        type            empty;
        inGroups        1(empty);
        nFaces          88624;
        startFace       89259;
    }
)

// ************************************************************************* //
