/*--------------------------------*- C++ -*----------------------------------*\
| =========                 |                                                 |
| \\      /  F ield         | OpenFOAM: The Open Source CFD Toolbox           |
|  \\    /   O peration     | Version:  2.4.0                                 |
|   \\  /    A nd           | Web:      www.OpenFOAM.org                      |
|    \\/     M anipulation  |                                                 |
\*---------------------------------------------------------------------------*/
FoamFile
{
    version     2.0;
    format      binary;
    class       polyBoundaryMesh;
    location    "constant/polyMesh";
    object      boundary;
}
// * * * * * * * * * * * * * * * * * * * * * * * * * * * * * * * * * * * * * //

7
(
    Bottom
    {
        type            wall;
        inGroups        1(wall);
        nFaces          81;
        startFace       21332;
    }
    FarStream
    {
        type            patch;
        nFaces          133;
        startFace       21413;
    }
    Top
    {
        type            patch;
        nFaces          81;
        startFace       21546;
    }
    Axis
    {
        type            symmetryPlane;
        inGroups        1(symmetryPlane);
        nFaces          0;
        startFace       21627;
    }
    FrontNBack
    {
        type            empty;
        inGroups        1(empty);
        nFaces          0;
        startFace       21627;
    }
    FrontNBack_pos
    {
        type            wedge;
        inGroups        1(wedge);
        nFaces          10773;
        startFace       21627;
    }
    FrontNBack_neg
    {
        type            wedge;
        inGroups        1(wedge);
        nFaces          10773;
        startFace       32400;
    }
)

// ************************************************************************* //
