/*--------------------------------*- C++ -*----------------------------------*\
| =========                 |                                                 |
| \\      /  F ield         | OpenFOAM: The Open Source CFD Toolbox           |
|  \\    /   O peration     | Version:  2.4.0                                 |
|   \\  /    A nd           | Web:      www.OpenFOAM.org                      |
|    \\/     M anipulation  |                                                 |
\*---------------------------------------------------------------------------*/
FoamFile
{
    version     2.0;
    format      ascii;
    class       polyBoundaryMesh;
    location    "constant/polyMesh";
    object      boundary;
}
// * * * * * * * * * * * * * * * * * * * * * * * * * * * * * * * * * * * * * //

8
(
    BotWall
    {
        type            wall;
        inGroups        1(wall);
        nFaces          1;
        startFace       124;
    }
    FreeStream
    {
        type            patch;
        nFaces          0;
        startFace       125;
    }
    FrontNBack
    {
        type            empty;
        inGroups        1(empty);
        nFaces          250;
        startFace       125;
    }
    LeftSide
    {
        type            symmetryPlane;
        inGroups        1(symmetryPlane);
        nFaces          0;
        startFace       375;
    }
    RightSide
    {
        type            symmetryPlane;
        inGroups        1(symmetryPlane);
        nFaces          125;
        startFace       375;
    }
    procBoundary11to8
    {
        type            processor;
        inGroups        1(processor);
        nFaces          50;
        startFace       500;
        matchTolerance  0.0001;
        transform       unknown;
        myProcNo        11;
        neighbProcNo    8;
    }
    procBoundary11to9
    {
        type            processor;
        inGroups        1(processor);
        nFaces          75;
        startFace       550;
        matchTolerance  0.0001;
        transform       unknown;
        myProcNo        11;
        neighbProcNo    9;
    }
    procBoundary11to10
    {
        type            processor;
        inGroups        1(processor);
        nFaces          1;
        startFace       625;
        matchTolerance  0.0001;
        transform       unknown;
        myProcNo        11;
        neighbProcNo    10;
    }
)

// ************************************************************************* //
