/*--------------------------------*- C++ -*----------------------------------*\
| =========                 |                                                 |
| \\      /  F ield         | OpenFOAM: The Open Source CFD Toolbox           |
|  \\    /   O peration     | Version:  2.4.0                                 |
|   \\  /    A nd           | Web:      www.OpenFOAM.org                      |
|    \\/     M anipulation  |                                                 |
\*---------------------------------------------------------------------------*/
FoamFile
{
    version     2.0;
    format      ascii;
    class       polyBoundaryMesh;
    location    "constant/polyMesh";
    object      boundary;
}
// * * * * * * * * * * * * * * * * * * * * * * * * * * * * * * * * * * * * * //

9
(
    VertWall
    {
        type            wall;
        inGroups        1(wall);
        nFaces          44;
        startFace       4429;
    }
    Vane
    {
        type            wall;
        inGroups        1(wall);
        nFaces          34;
        startFace       4473;
    }
    FreeStream
    {
        type            patch;
        nFaces          24;
        startFace       4507;
    }
    Inlet
    {
        type            patch;
        nFaces          28;
        startFace       4531;
    }
    Top
    {
        type            patch;
        nFaces          30;
        startFace       4559;
    }
    Bottom
    {
        type            patch;
        nFaces          0;
        startFace       4589;
    }
    Sides
    {
        type            empty;
        inGroups        1(empty);
        nFaces          4552;
        startFace       4589;
    }
    procBoundary3to4
    {
        type            processor;
        inGroups        1(processor);
        nFaces          12;
        startFace       9141;
        matchTolerance  0.0001;
        transform       unknown;
        myProcNo        3;
        neighbProcNo    4;
    }
    procBoundary3to5
    {
        type            processor;
        inGroups        1(processor);
        nFaces          74;
        startFace       9153;
        matchTolerance  0.0001;
        transform       unknown;
        myProcNo        3;
        neighbProcNo    5;
    }
)

// ************************************************************************* //
